feeders/1_REDE2_1/004_chavesMT.dss
New Line.11CF_184 phases=2 bus1=22931.3.1 bus2=11CF184.3.1 r1=0.001 r0=0.001 x1=0 x0=0 c1=0 c0=0 length=0.001 switch=T
New Line.11CF_1908 phases=3 bus1=815121.1.2.3 bus2=11CF1908.1.2.3 r1=0.001 r0=0.001 x1=0 x0=0 c1=0 c0=0 length=0.001 switch=T
New Line.11CS_1939 phases=3 bus1=818641.1.2.3 bus2=11CS1939.1.2.3 r1=0.001 r0=0.001 x1=0 x0=0 c1=0 c0=0 length=0.001 switch=T
New Line.11CS_1941 phases=3 bus1=818971.1.2.3 bus2=11CS1941.1.2.3 r1=0.001 r0=0.001 x1=0 x0=0 c1=0 c0=0 length=0.001 switch=T
New Line.11CS_1947 phases=3 bus1=818181.1.2.3 bus2=11CS1947.1.2.3 r1=0.001 r0=0.001 x1=0 x0=0 c1=0 c0=0 length=0.001 switch=T
New Line.12CS_1935 phases=3 bus1=818991.1.2.3 bus2=12CS1935.1.2.3 r1=0.001 r0=0.001 x1=0 x0=0 c1=0 c0=0 length=0.001 switch=T
New Line.16CF_1092 phases=3 bus1=641791.1.2.3 bus2=16CF1092.1.2.3 r1=0.001 r0=0.001 x1=0 x0=0 c1=0 c0=0 length=0.001 switch=T
New Line.16CF_1453 phases=3 bus1=544751.1.2.3 bus2=16CF1453.1.2.3 r1=0.001 r0=0.001 x1=0 x0=0 c1=0 c0=0 length=0.001 switch=T
New Line.16CF_1563 phases=1 bus1=750641.1 bus2=16CF1563.1 r1=0.001 r0=0.001 x1=0 x0=0 c1=0 c0=0 length=0.001 switch=T
New Line.16CF_1564 phases=1 bus1=750631.2 bus2=16CF1564.2 r1=0.001 r0=0.001 x1=0 x0=0 c1=0 c0=0 length=0.001 switch=T
New Line.16CF_1587 phases=3 bus1=752721.1.2.3 bus2=16CF1587.1.2.3 r1=0.001 r0=0.001 x1=0 x0=0 c1=0 c0=0 length=0.001 switch=T
New Line.16CF_1603 phases=1 bus1=756101.1 bus2=16CF1603.1 r1=0.001 r0=0.001 x1=0 x0=0 c1=0 c0=0 length=0.001 switch=T
New Line.16CF_1637 phases=2 bus1=797061.3.1 bus2=16CF1637.3.1 r1=0.001 r0=0.001 x1=0 x0=0 c1=0 c0=0 length=0.001 switch=T
New Line.16CF_1699 phases=1 bus1=790081.1 bus2=16CF1699.1 r1=0.001 r0=0.001 x1=0 x0=0 c1=0 c0=0 length=0.001 switch=T
New Line.16CF_1723 phases=1 bus1=794731.2 bus2=16CF1723.2 r1=0.001 r0=0.001 x1=0 x0=0 c1=0 c0=0 length=0.001 switch=T
New Line.16CF_179 phases=2 bus1=22951.3.1 bus2=16CF179.3.1 r1=0.001 r0=0.001 x1=0 x0=0 c1=0 c0=0 length=0.001 switch=T
New Line.16CF_181 phases=3 bus1=337701.1.2.3 bus2=16CF181.1.2.3 r1=0.001 r0=0.001 x1=0 x0=0 c1=0 c0=0 length=0.001 switch=T
New Line.16CF_182 phases=2 bus1=342741.1.2 bus2=16CF182.1.2 r1=0.001 r0=0.001 x1=0 x0=0 c1=0 c0=0 length=0.001 switch=T
New Line.16CF_1875 phases=1 bus1=799351.2 bus2=16CF1875.2 r1=0.001 r0=0.001 x1=0 x0=0 c1=0 c0=0 length=0.001 switch=T
New Line.16CF_1887 phases=1 bus1=801521.3 bus2=16CF1887.3 r1=0.001 r0=0.001 x1=0 x0=0 c1=0 c0=0 length=0.001 switch=T
New Line.16CF_1888 phases=2 bus1=801511.3.1 bus2=16CF1888.3.1 r1=0.001 r0=0.001 x1=0 x0=0 c1=0 c0=0 length=0.001 switch=T
New Line.16CF_1889 phases=3 bus1=801501.1.2.3 bus2=16CF1889.1.2.3 r1=0.001 r0=0.001 x1=0 x0=0 c1=0 c0=0 length=0.001 switch=T
New Line.16CF_249 phases=1 bus1=304531.2 bus2=16CF249.2 r1=0.001 r0=0.001 x1=0 x0=0 c1=0 c0=0 length=0.001 switch=T
New Line.16CF_691 phases=1 bus1=415981.3 bus2=16CF691.3 r1=0.001 r0=0.001 x1=0 x0=0 c1=0 c0=0 length=0.001 switch=T
New Line.16CS_1827 phases=3 bus1=801481.1.2.3 bus2=16CS1827.1.2.3 r1=0.001 r0=0.001 x1=0 x0=0 c1=0 c0=0 length=0.001 switch=T
New Line.16CS_243 phases=3 bus1=21711.1.2.3 bus2=16CS243.1.2.3 r1=0.001 r0=0.001 x1=0 x0=0 c1=0 c0=0 length=0.001 switch=T
New Line.16CS_245 phases=3 bus1=780441.1.2.3 bus2=16CS245.1.2.3 r1=0.001 r0=0.001 x1=0 x0=0 c1=0 c0=0 length=0.001 switch=T
New Line.16DJ_90118 phases=3 bus1=1_REDE2_1.1.2.3 bus2=16DJ90118.1.2.3 r1=0.001 r0=0.001 x1=0 x0=0 c1=0 c0=0 length=0.001 switch=T
New Line.16FR_1100 phases=1 bus1=427371.3 bus2=16FR1100.3 r1=0.001 r0=0.001 x1=0 x0=0 c1=0 c0=0 length=0.001 switch=T
New Line.16FR_244 phases=3 bus1=816861.1.2.3 bus2=16FR244.1.2.3 r1=0.001 r0=0.001 x1=0 x0=0 c1=0 c0=0 length=0.001 switch=T
New Line.16RL_136 phases=3 bus1=755961.1.2.3 bus2=16RL136.1.2.3 r1=0.001 r0=0.001 x1=0 x0=0 c1=0 c0=0 length=0.001 switch=T
New Line.34CF_1358 phases=1 bus1=676901.2 bus2=34CF1358.2 r1=0.001 r0=0.001 x1=0 x0=0 c1=0 c0=0 length=0.001 switch=T
New Line.6CF_1044 phases=1 bus1=642331.2 bus2=6CF1044.2 r1=0.001 r0=0.001 x1=0 x0=0 c1=0 c0=0 length=0.001 switch=T
New Line.6CF_1113 phases=3 bus1=618061.1.2.3 bus2=6CF1113.1.2.3 r1=0.001 r0=0.001 x1=0 x0=0 c1=0 c0=0 length=0.001 switch=T
New Line.6CF_1155 phases=3 bus1=648931.1.2.3 bus2=6CF1155.1.2.3 r1=0.001 r0=0.001 x1=0 x0=0 c1=0 c0=0 length=0.001 switch=T
New Line.6CF_1166 phases=3 bus1=536681.1.2.3 bus2=6CF1166.1.2.3 r1=0.001 r0=0.001 x1=0 x0=0 c1=0 c0=0 length=0.001 switch=T
New Line.6CF_125 phases=1 bus1=24571.1 bus2=6CF125.1 r1=0.001 r0=0.001 x1=0 x0=0 c1=0 c0=0 length=0.001 switch=T
New Line.6CF_128 phases=3 bus1=357331.1.2.3 bus2=6CF128.1.2.3 r1=0.001 r0=0.001 x1=0 x0=0 c1=0 c0=0 length=0.001 switch=T
New Line.6CF_130 phases=1 bus1=24491.1 bus2=6CF130.1 r1=0.001 r0=0.001 x1=0 x0=0 c1=0 c0=0 length=0.001 switch=T
New Line.6CF_131 phases=3 bus1=24481.1.2.3 bus2=6CF131.1.2.3 r1=0.001 r0=0.001 x1=0 x0=0 c1=0 c0=0 length=0.001 switch=T
New Line.6CF_132 phases=1 bus1=24471.3 bus2=6CF132.3 r1=0.001 r0=0.001 x1=0 x0=0 c1=0 c0=0 length=0.001 switch=T
New Line.6CF_133 phases=2 bus1=22971.2.3 bus2=6CF133.2.3 r1=0.001 r0=0.001 x1=0 x0=0 c1=0 c0=0 length=0.001 switch=T
New Line.6CF_140 phases=1 bus1=24531.3 bus2=6CF140.3 r1=0.001 r0=0.001 x1=0 x0=0 c1=0 c0=0 length=0.001 switch=T
New Line.6CF_1496 phases=1 bus1=689441.1 bus2=6CF1496.1 r1=0.001 r0=0.001 x1=0 x0=0 c1=0 c0=0 length=0.001 switch=T
New Line.6CF_1557 phases=1 bus1=71731.2 bus2=6CF1557.2 r1=0.001 r0=0.001 x1=0 x0=0 c1=0 c0=0 length=0.001 switch=T
New Line.6CF_1558 phases=1 bus1=71881.2 bus2=6CF1558.2 r1=0.001 r0=0.001 x1=0 x0=0 c1=0 c0=0 length=0.001 switch=T
New Line.6CF_1610 phases=3 bus1=814201.1.2.3 bus2=6CF1610.1.2.3 r1=0.001 r0=0.001 x1=0 x0=0 c1=0 c0=0 length=0.001 switch=T
New Line.6CF_1620 phases=3 bus1=770071.1.2.3 bus2=6CF1620.1.2.3 r1=0.001 r0=0.001 x1=0 x0=0 c1=0 c0=0 length=0.001 switch=T
New Line.6CF_1654 phases=3 bus1=765251.1.2.3 bus2=6CF1654.1.2.3 r1=0.001 r0=0.001 x1=0 x0=0 c1=0 c0=0 length=0.001 switch=T
New Line.6CF_1828 phases=3 bus1=801221.1.2.3 bus2=6CF1828.1.2.3 r1=0.001 r0=0.001 x1=0 x0=0 c1=0 c0=0 length=0.001 switch=T
New Line.6CF_1829 phases=3 bus1=801461.1.2.3 bus2=6CF1829.1.2.3 r1=0.001 r0=0.001 x1=0 x0=0 c1=0 c0=0 length=0.001 switch=T
New Line.6CF_1831 phases=3 bus1=799921.1.2.3 bus2=6CF1831.1.2.3 r1=0.001 r0=0.001 x1=0 x0=0 c1=0 c0=0 length=0.001 switch=T
New Line.6CF_1852 phases=1 bus1=806231.1 bus2=6CF1852.1 r1=0.001 r0=0.001 x1=0 x0=0 c1=0 c0=0 length=0.001 switch=T
New Line.6CF_1912 phases=3 bus1=813661.1.2.3 bus2=6CF1912.1.2.3 r1=0.001 r0=0.001 x1=0 x0=0 c1=0 c0=0 length=0.001 switch=T
New Line.6CF_199 phases=1 bus1=610401.3 bus2=6CF199.3 r1=0.001 r0=0.001 x1=0 x0=0 c1=0 c0=0 length=0.001 switch=T
New Line.6CF_248 phases=3 bus1=24511.1.2.3 bus2=6CF248.1.2.3 r1=0.001 r0=0.001 x1=0 x0=0 c1=0 c0=0 length=0.001 switch=T
New Line.6CF_654 phases=1 bus1=376921.1 bus2=6CF654.1 r1=0.001 r0=0.001 x1=0 x0=0 c1=0 c0=0 length=0.001 switch=T
New Line.6CF_890 phases=1 bus1=355141.2 bus2=6CF890.2 r1=0.001 r0=0.001 x1=0 x0=0 c1=0 c0=0 length=0.001 switch=T
New Line.6CF_953 phases=1 bus1=14921.1 bus2=6CF953.1 r1=0.001 r0=0.001 x1=0 x0=0 c1=0 c0=0 length=0.001 switch=T
New Line.6CS_1206 phases=3 bus1=608071.1.2.3 bus2=6CS1206.1.2.3 r1=0.001 r0=0.001 x1=0 x0=0 c1=0 c0=0 length=0.001 switch=T
New Line.6CS_126 phases=3 bus1=807741.1.2.3 bus2=6CS126.1.2.3 r1=0.001 r0=0.001 x1=0 x0=0 c1=0 c0=0 length=0.001 switch=T
New Line.6CS_142 phases=3 bus1=764471.1.2.3 bus2=6CS142.1.2.3 r1=0.001 r0=0.001 x1=0 x0=0 c1=0 c0=0 length=0.001 switch=T
New Line.6CS_1614 phases=3 bus1=758241.1.2.3 bus2=6CS1614.1.2.3 r1=0.001 r0=0.001 x1=0 x0=0 c1=0 c0=0 length=0.001 switch=T
New Line.6CS_690 phases=3 bus1=11431.1.2.3 bus2=6CS690.1.2.3 r1=0.001 r0=0.001 x1=0 x0=0 c1=0 c0=0 length=0.001 switch=T
New Line.6FR_129 phases=3 bus1=24501.1.2.3 bus2=6FR129.1.2.3 r1=0.001 r0=0.001 x1=0 x0=0 c1=0 c0=0 length=0.001 switch=T
New Line.6FR_134 phases=3 bus1=320721.1.2.3 bus2=6FR134.1.2.3 r1=0.001 r0=0.001 x1=0 x0=0 c1=0 c0=0 length=0.001 switch=T
New Line.6FR_139 phases=3 bus1=24521.1.2.3 bus2=6FR139.1.2.3 r1=0.001 r0=0.001 x1=0 x0=0 c1=0 c0=0 length=0.001 switch=T
New Line.6FR_180 phases=3 bus1=792841.1.2.3 bus2=6FR180.1.2.3 r1=0.001 r0=0.001 x1=0 x0=0 c1=0 c0=0 length=0.001 switch=T
New Line.6FR_183 phases=2 bus1=68341.3.1 bus2=6FR183.3.1 r1=0.001 r0=0.001 x1=0 x0=0 c1=0 c0=0 length=0.001 switch=T
New Line.6FR_1830 phases=1 bus1=801211.1 bus2=6FR1830.1 r1=0.001 r0=0.001 x1=0 x0=0 c1=0 c0=0 length=0.001 switch=T
New Line.6FR_185 phases=1 bus1=22961.2 bus2=6FR185.2 r1=0.001 r0=0.001 x1=0 x0=0 c1=0 c0=0 length=0.001 switch=T
New Line.6FR_521 phases=3 bus1=560581.1.2.3 bus2=6FR521.1.2.3 r1=0.001 r0=0.001 x1=0 x0=0 c1=0 c0=0 length=0.001 switch=T
New Line.6RL_1604 phases=3 bus1=762121.1.2.3 bus2=6RL1604.1.2.3 r1=0.001 r0=0.001 x1=0 x0=0 c1=0 c0=0 length=0.001 switch=T
New Line.6RL_1818 phases=3 bus1=801531.1.2.3 bus2=6RL1818.1.2.3 r1=0.001 r0=0.001 x1=0 x0=0 c1=0 c0=0 length=0.001 switch=T
New Line.6RT9707 phases=3 bus1=809161.1.2.3 bus2=RT762101.1.2.3 r1=0.001 r0=0.001 x1=0 x0=0 c1=0 c0=0 length=0.001 switch=T
